6
Coordinates from ORCA-job FCl_NEB_initial_path E   0.000000000000
  C       0.308438      0.001548     -0.010576
  Cl      2.140610      0.002551     -0.019709
  H      -0.030064     -0.791634      0.657690
  H      -0.035298     -0.179551     -1.029714
  H      -0.031425      0.975489      0.344389
  F      -2.352262     -0.008402      0.057921
6
Coordinates from ORCA-job FCl_NEB_initial_path E   0.000000000000
  C       0.201381      0.001294     -0.008623
  Cl      2.196539      0.002802     -0.021721
  H      -0.044333     -0.805840      0.671042
  H      -0.052532     -0.182850     -1.045408
  H      -0.046705      0.992216      0.352145
  F      -2.254350     -0.007621      0.052565
6
Coordinates from ORCA-job FCl_NEB_initial_path E   0.000000000000
  C       0.083576      0.001017     -0.006544
  Cl      2.249152      0.003030     -0.023569
  H      -0.052108     -0.817482      0.682104
  H      -0.063244     -0.185576     -1.058141
  H      -0.055485      1.005894      0.358638
  F      -2.161890     -0.006883      0.047513
6
Coordinates from ORCA-job FCl_NEB_initial_path E   0.000000000000
  C      -0.041902      0.000712     -0.004302
  Cl      2.299280      0.003241     -0.025285
  H      -0.054964     -0.823204      0.688077
  H      -0.068906     -0.186977     -1.063627
  H      -0.059303      1.012413      0.362398
  F      -2.074206     -0.006185      0.042738
6
Coordinates from ORCA-job FCl_NEB_initial_path E   0.000000000000
  C      -0.168729      0.000374     -0.001872
  Cl      2.348681      0.003445     -0.026947
  H      -0.056494     -0.820909      0.687262
  H      -0.073068     -0.186584     -1.059093
  H      -0.061740      1.009180      0.362562
  F      -1.988650     -0.005506      0.038088
6
Coordinates from ORCA-job FCl_NEB_initial_path E   0.000000000000
  C      -0.291886     -0.000005      0.000794
  Cl      2.400243      0.003658     -0.028691
  H      -0.060798     -0.811269      0.680332
  H      -0.079903     -0.184563     -1.045255
  H      -0.066920      0.996982      0.359545
  F      -1.900735     -0.004803      0.033275
6
Coordinates from ORCA-job FCl_NEB_initial_path E   0.000000000000
  C      -0.406400     -0.000419      0.003665
  Cl      2.454963      0.003891     -0.030579
  H      -0.070548     -0.796988      0.669615
  H      -0.092077     -0.181533     -1.025499
  H      -0.077510      0.979110      0.354605
  F      -1.808427     -0.004061      0.028193
6
Coordinates from ORCA-job FCl_NEB_initial_path E   0.000000000000
  C      -0.511111     -0.000855      0.006655
  Cl      2.512137      0.004144     -0.032607
  H      -0.086172     -0.781410      0.657919
  H      -0.109942     -0.178250     -1.004086
  H      -0.093913      0.959659      0.349225
  F      -1.710999     -0.003288      0.022894
