6
Coordinates from ORCA-job FCl_TS_OPT
  C   0.02718897021701      0.00004110800267     -0.00002667537224
  Cl  2.07061123408387     -0.00016420339245      0.00006890681468
  H   -0.11955429798396      1.07262371053903     -0.00006604328008
  H   -0.11981517782683     -0.53616037479796      0.92885079202394
  H   -0.11971232926528     -0.53621201561557     -0.92889110763716
  F   -2.10036033128264      0.00008258653133     -0.00006668829446
