10
Coordinates from ORCA-job Keto_enol_TS
  C   0.00476564754939      0.00087776303243     -0.00146959229095
  C   1.47853453500387      0.00973678614659     -0.01629103401500
  H   -0.37145473242573      1.03290726573655      0.00070591341955
  H   -0.41928201842998     -0.51952553289460      0.86701779831979
  H   -0.37161284656213     -0.48751123314495     -0.91053882270344
  C   2.45472087463293      0.58104146863845     -0.97234714856887
  H   2.47389332829739      0.14183109890984     -1.97008192122452
  H   3.14575266691479     -0.04078124297536      0.06837069968324
  H   2.47393216730629      1.66781706714678     -1.05796781194872
  O   2.24450466268570     -0.50138076298513      0.83927010629401
