10
Coordinates from ORCA-job Keto_enol_TS
  C   -0.00449511281647     -0.00196406731220      0.00279935653433
  C   1.49579419576615      0.00437598001040     -0.01010252363437
  H   -0.38907964751329      1.02627536379459      0.00496985989267
  H   -0.42147244592319     -0.51799807644777      0.87719376998249
  H   -0.39056502161886     -0.49955751373309     -0.89636276042858
  C   2.17445313992402      0.68263891304430     -1.16310835411057
  H   1.91081160025283      0.21470407127268     -2.11874986611030
  H   3.25414865230882      0.59107646223630     -1.00413027618204
  H   1.90816420436851      1.74448111520675     -1.22060653316248
  O   2.17591194435641     -0.50601538929557      0.85996479548357
