10
Coordinates from ORCA-job Keto_enol_TS
  C   -0.00361356463886     -0.00142711039398      0.00252481105084
  C   1.48695486064387      0.00592796612704     -0.00931475579687
  H   -0.38601962182437      1.02764009894264      0.00551896641312
  H   -0.42144569349991     -0.51970463939066      0.87504277180184
  H   -0.38585628961023     -0.49632988166930     -0.89977584990760
  C   2.28340860167597      0.64852985980132     -1.09613004532588
  H   2.15249722703534      0.19700987814246     -2.08197309926457
  H   3.23673513154320      0.36519891645916     -0.61709027342597
  H   2.15265273243212      1.72999910262228     -1.17523315365936
  O   2.21422435288300     -0.49288201969362      0.83406956640794
