10
Coordinates from ORCA-job Keto_enol_TS
  C   0.01955950964712      0.00229444858404     -0.00435432257416
  C   1.52337975426677      0.00080576165191     -0.00203117644412
  H   -0.36093632811350      1.03206250981752      0.00427009302719
  H   -0.40907727384180     -0.51979358971112      0.86084867891406
  H   -0.36119387056251     -0.48500239115481     -0.91143725283588
  C   2.18319245463407      0.69724224548777     -1.16003264437622
  H   1.89063647208751      0.23116020057383     -2.10953517113900
  H   3.27687903700940      0.65769505853763     -1.08509344293450
  H   1.88317823364987      1.75214213478728     -1.19944218110973
  O   2.17576569604112     -0.52671619103683      0.87874347410554
