10
Coordinates from ORCA-job Keto_enol_TS
  C   -0.00385902702217     -0.00146903728705      0.00243512102229
  C   1.48206649482291      0.00573435987367     -0.00995425987774
  H   -0.38506866309185      1.02809192344988      0.00530746792064
  H   -0.42151701027083     -0.51990429249191      0.87493584714044
  H   -0.38537055758591     -0.49587829449425     -0.90050073371569
  C   2.33395250122275      0.63076997768353     -1.06573956328094
  H   2.25802782913556      0.18132133633003     -2.05654270431610
  H   3.20656185918207      0.27133756770370     -0.45892523797781
  H   2.25828130882487      1.71568462591959     -1.14779429160373
  O   2.23089372346325     -0.48739811032516      0.82335011441801
