10
Coordinates from ORCA-job Keto_enol_TS
  C   0.00678567781532      0.00140956937686      0.00244668726307
  C   1.49711994963980     -0.00192476209615     -0.00336390195841
  H   -0.38680131661734      1.02698324998140      0.00400705623307
  H   -0.38707573050126     -0.50534303385677      0.89394117275698
  H   -0.39465945537389     -0.51144270500882     -0.88080440226916
  C   2.25006878147629     -0.55513916167608     -0.96317506771879
  H   1.81006722604412     -1.05031702604775     -1.82215402039466
  H   2.90043539986468      0.61202247456119      1.06071297266263
  H   3.33599171568997     -0.55122913639296     -0.95657046510575
  O   2.01077911798973      0.63370733111211      1.09934434820643
