10
Coordinates from ORCA-job Keto_enol_TS
  C   0.00131290223546      0.00000500366060     -0.00004631838097
  C   1.47599944166145      0.00829370061423     -0.01397592131837
  H   -0.37596847155039      1.03145770750186      0.00234090384752
  H   -0.42018008576467     -0.51996454208617      0.86985103568703
  H   -0.37614177187348     -0.49025149027098     -0.90744793387480
  C   2.45083921537635      0.58518666591613     -0.98183703346676
  H   2.46726565368660      0.14261244887325     -1.97763060693673
  H   3.14221233795510      0.01824066569884     -0.03062140314692
  H   2.46730368212165      1.67165755941353     -1.06602604742692
  O   2.25306992255453     -0.49209186551825      0.82583288796713
