10
Coordinates from ORCA-job Keto_enol_TS
  C   -0.00221315282877     -0.00080677618238      0.00156487845474
  C   1.47533558598387      0.00714880932576     -0.01167299271724
  H   -0.38116861306965      1.02981997414934      0.00467913691269
  H   -0.42105377443867     -0.52060929011063      0.87275881845397
  H   -0.38127152238584     -0.49280945294066     -0.90398242633995
  C   2.42442900647725      0.59752673304769     -1.00567609175518
  H   2.42536678041637      0.15017874064526     -1.99873576853006
  H   3.15277468836199      0.10616257931707     -0.17707393766294
  H   2.42477329645361      1.68356719427917     -1.08833595543786
  O   2.25435903523241     -0.48495676203121      0.81484194748398
