10
Coordinates from ORCA-job Keto_enol_TS
  C   0.00640175107787      0.00145801089306      0.00252554575259
  C   1.49592432294299     -0.00213774374437     -0.00371946363137
  H   -0.38677133992751      1.02719785232589      0.00425056012842
  H   -0.38706587285074     -0.50481073974248      0.89447739795999
  H   -0.39543594857177     -0.51150238485640     -0.88045186368473
  C   2.25243354843020     -0.55395225718035     -0.96107367602446
  H   1.81501951129319     -1.04974108110636     -1.82108624644182
  H   2.77529949675072      0.63377981854824      1.09870921754713
  H   3.33808282855711     -0.54835863403150     -0.95154514950462
  O   2.01172799788021      0.63582931743882      1.10298244639135
