10
Coordinates from ORCA-job Keto_enol_TS
  C   -0.00407751335704     -0.00179366834953      0.00265574140763
  C   1.49332991190355      0.00456445715027     -0.01002705248125
  H   -0.38766329470384      1.02681569189858      0.00499756859621
  H   -0.42146156042889     -0.51839594093731      0.87645625838565
  H   -0.38899722479268     -0.49843634787581     -0.89752212257635
  C   2.20570591645888      0.67294324786245     -1.14423528668949
  H   1.97936261679575      0.21217546844202     -2.11150205733921
  H   3.26050573144798      0.52412118885664     -0.89145015345436
  H   1.97915066298931      1.74229837142443     -1.20995316944869
  O   2.18768988698290     -0.50208613246877      0.85167501381163
