10
Coordinates from ORCA-job keto_enlo
  C   -0.00498696502704     -0.00173782346769      0.01966850697888
  C   1.51931484011001     -0.02985459928911      0.01218723417843
  H   -0.37585804710545      1.04271067734320     -0.05443055508316
  H   -0.38418010067720     -0.46594899563717      0.94851062084666
  H   -0.41007141595658     -0.54381978077529     -0.86124605423615
  C   2.20075242297848      0.57440573341700     -1.21046413666012
  H   1.88249954294843      0.04677210971095     -2.13478185177153
  H   3.29852247209436      0.50302603591473     -1.10163312259861
  H   1.90586651861494      1.63787861957552     -1.33673507029377
  O   2.15923569667318     -0.51000552634691      0.93458646814483
