25
XYZ file generated by orca_plot on BaseName=CrNH3_6
  Cr     -0.000143     -0.000147      0.000166
  N      -1.814325      0.444946     -1.103279
  N       1.242499      0.897776     -1.535034
  N      -1.189363     -0.849567      1.603989
  N       1.776641     -0.538057      1.123106
  N       0.089394     -1.900477     -1.043283
  N      -0.105590      1.944795      0.955713
  H      -0.303408      2.699503      0.315285
  H      -0.818527      2.029648      1.664985
  H       0.740458      2.237328      1.421404
  H      -0.880441     -0.575566      2.525059
  H      -1.198886     -1.857892      1.641356
  H      -2.165823     -0.595139      1.585337
  H       1.959910      0.035592      1.932785
  H       1.751485     -1.477368      1.491825
  H       2.637012     -0.502457      0.596752
  H       0.978659     -2.373689     -0.981406
  H      -0.081871     -1.825588     -2.035224
  H      -0.578313     -2.590630     -0.733340
  H       0.753513      1.498734     -2.181543
  H       1.724478      0.238861     -2.128391
  H       1.978089      1.483600     -1.168182
  H      -2.352013      1.217366     -0.738846
  H      -1.676939      0.678057     -2.075401
  H      -2.469804     -0.322280     -1.127955
