13

    Cr       -0.00000        0.00000        0.00000
    O       -2.15878        0.00000       -0.00000
    O        2.15878        0.00000       -0.00000
    O        0.00000       -2.15878       -0.00000
    O        0.00000        2.15878       -0.00000
    O        0.00000       -0.00000        2.15878
    O        0.00000       -0.00000       -2.15878
    Q        2.00000       -4.15878        0.00000       -0.00000      
    Q        2.00000        4.15878        0.00000       -0.00000        
    Q        2.00000        0.00000       -4.15878       -0.00000      
    Q        2.00000        0.00000        4.15878       -0.00000      
    Q        2.00000        0.00000       -0.00000        4.15878 
    Q        2.00000        0.00000       -0.00000       -4.15878      
