6
Coordinates from ORCA-job FCl_TS_OPT
  C   0.02664232078813      0.00002603397880     -0.00001690657942
  Cl  2.07040673171534     -0.00011793484176      0.00004019590984
  H   -0.11953261344676      1.07259637576830     -0.00005086795497
  H   -0.11968988279636     -0.53616661098032      0.92886760826989
  H   -0.11963884040986     -0.53621911404808     -0.92887905797116
  F   -2.09982964790832      0.00009206139012     -0.00009178741949
