6
Coordinates from ORCA-job FCl_SN1_TS
  C   -2.56420425047011     -0.44010620941630      0.02114536002758
  Cl  0.45900270410925     -0.43473730548834     -0.02110404432380
  H   -2.13852605313235     -1.22059668497850      0.67200348532784
  H   -2.16401165088842     -0.61747040066547     -0.98998886950952
  H   -2.14678577214496      0.52046560965146      0.36328494947308
  F   -3.76407497747334     -0.44268500910283      0.03856911900481
