6
Coordinates from ORCA-job FCl_SN1_TS
  C   -2.35753893986793     -0.43976348644117      0.01829050867857
  Cl  0.37415654635985     -0.43461600645286     -0.02031371047663
  H   -2.07668006395702     -1.24423529533467      0.69118852710298
  H   -2.10221826238020     -0.62287763513316     -1.02101809845533
  H   -2.08467066185306      0.54942948278989      0.37312857024335
  F   -4.07164861830157     -0.44306705942802      0.04263420290708
