6
Coordinates from ORCA-job FCl_SN1_TS
  C   -1.70150796337873     -0.43648340392792     -0.00410458291755
  Cl  0.11671433375287     -0.43921325505267      0.01031350612346
  H   -2.06280953297393     -1.22614713426207      0.65773681479591
  H   -2.04384785351324     -0.61644095382516     -1.02449986485660
  H   -2.05609810610086      0.53490490110977      0.34564827577438
  F   -4.57105087778611     -0.45175015404195      0.09881585108040
