6
Coordinates from ORCA-job FCl_SN1_TS
  C   -2.41796636246885     -0.43986979416444      0.01913330142432
  Cl  0.41481033054627     -0.43457310962592     -0.02083639208298
  H   -2.09284856755339     -1.23744886941765      0.68567465040338
  H   -2.11825121315155     -0.62134205490238     -1.01207014758152
  H   -2.10082720134190      0.54106484617392      0.37030393279193
  F   -4.00351698603052     -0.44296101806350      0.04170465504488
