6
Coordinates from ORCA-job FCl_SN1_TS
  C   -1.67860823989161     -0.43659687787690     -0.00366905057387
  Cl  0.13521735175718     -0.43855806154192      0.00681999897076
  H   -2.03903468026932     -1.22624663142349      0.65870518462947
  H   -2.02516371562958     -0.61659462787838     -1.02281827581985
  H   -2.03417005854213      0.53432268951904      0.34665226711856
  F   -4.67684065742454     -0.45145649079834      0.09821987567492
